[TITLE]
;;Project Title/Notes

[OPTIONS]
;;Option             Value
FLOW_UNITS           CMS
INFILTRATION         HORTON
FLOW_ROUTING         DYNWAVE
LINK_OFFSETS         DEPTH
MIN_SLOPE            0
ALLOW_PONDING        NO
SKIP_STEADY_STATE    NO

START_DATE           04/08/2018
START_TIME           00:00:00
REPORT_START_DATE    04/08/2018
REPORT_START_TIME    00:00:00
END_DATE             04/08/2018
END_TIME             04:00:00
SWEEP_START          01/01
SWEEP_END            12/31
DRY_DAYS             0
REPORT_STEP          00:05:00
WET_STEP             00:00:10
DRY_STEP             00:00:10
ROUTING_STEP         0:00:01 
RULE_STEP            00:00:01

INERTIAL_DAMPING     PARTIAL
NORMAL_FLOW_LIMITED  BOTH
FORCE_MAIN_EQUATION  H-W
VARIABLE_STEP        0.75
LENGTHENING_STEP     0
MIN_SURFAREA         1.167
MAX_TRIALS           20
HEAD_TOLERANCE       0.0015
SYS_FLOW_TOL         5
LAT_FLOW_TOL         5
MINIMUM_STEP         1
THREADS              1

[EVAPORATION]
;;Data Source    Parameters
;;-------------- ----------------
CONSTANT         0.0
DRY_ONLY         NO

[RAINGAGES]
;;Name           Format    Interval SCF      Source    
;;-------------- --------- ------ ------ ----------
R1               INTENSITY 0:01     1        TIMESERIES r1              

[JUNCTIONS]
;;Name           Elevation  MaxDepth   InitDepth  SurDepth   Aponded   
;;-------------- ---------- ---------- ---------- ---------- ----------
196EC4C961E09877 -1.029     4.938      0          0          0         
EBF7F09D29D67CA0 -1.804     5.488      0          0          0         
459D4BC91B81CAE2 -1.742     5.5        0          0          0         
34EF61997CD65A7B -1.845     5.568      0          0          0         
925C24EA31A27003 -1.209     4.987      0          0          0         
83C8BD908DB5F97E -1.679     5.554      0          0          0         
4E3D3F42150986CC -1.702     5.246      0          0          0         
12DA464C57F708A1 -1.649     5.228      0          0          0         
F03172863E8BBEA7 -1.658     5.446      0          0          0         
CE27CEC78F9A31DD -0.467     4.803      0          0          0         
EA0F8A2AD5BC6631 -1.297     5.23       0          0          0         
41561403573A71B5 -1.7       5.345      0          0          0         
6C3CD25FD5FB9A6F -1.983     5.525      0          0          0         
71DBD67AC53FF3A4 -0.625     4.925      0          0          0         
DE8AD994C6DC4514 -1.288     4.856      0          0          0         
d0866e6d-e97c-4f7d-8057-74d187ef71c3 -1.957     5.599      0          0          0         
b9ae046f-47ae-49c2-be32-eaf6d79bb805 -1.246     5.599      0          0          0         
92898ed0-5459-41a0-a254-629f598c3b67 -1.823     5.599      0          0          0         
da41f0cc-911b-4fe5-a258-f09dabc1a171 -1.229     5.599      0          0          0         
405bbde4-804e-4da1-9002-9c1720b9218b -1.481     5.599      0          0          0         
f2488888-1b9e-498f-984f-3fb42d28d9e6 -1.789     5.599      0          0          0         
eb15b383-2f80-4eb2-9211-d11d253c9aae -1.466     5.599      0          0          0         
a358bdf9-3a83-4bba-89b8-8198ebc45597 -1.55      5.599      0          0          0         
4ebd8716-9ab3-446a-8265-a74fe2faadc1 -1.258     5.599      0          0          0         
e6cd9764-01e0-400c-990d-d03d9882d2f4 -1.383     5.599      0          0          0         
4efbd214-7384-4ec8-9501-e96b025d5c16 -1.779     5.599      0          0          0         
81c4a1d0-501e-4ffa-b43e-fe8bc6291624 -1.728     5.599      0          0          0         
f59cd38c-0d2d-475a-a651-1ad453eaaf99 -1.324     5.599      0          0          0         
6aeb0221-b5ed-487b-9c7f-fbc0dafb10ab -1.773     5.599      0          0          0         
e05adeaa-2d22-4153-a331-536988826f56 -1.233     5.599      0          0          0         
aa69c012-5f9a-4490-8648-71904a045598 -1.94      5.599      0          0          0         
2186d950-e1d1-477b-a825-3199f96fd8a4 -1.858     5.599      0          0          0         
e8c3965b-a83b-4c54-80c3-ab5fd4019043 -1.575     5.599      0          0          0         
68a81f67-a2ad-4bed-b1f6-7cbb513a031e -1.801     5.599      0          0          0         
ba9aaecf-a082-48ce-88cf-8a1f5406ac1c -1.771     5.599      0          0          0         
7e45ebeb-edd6-42e7-9e6a-98b69703873f -1.154     5.599      0          0          0         
2182fac2-1f91-4194-a42f-f9da1b54b0e3 -1.826     5.599      0          0          0         
bcf8144b-8631-49e6-ad19-d728fb2860ac -1.719     5.599      0          0          0         
fc47ce59-db93-4851-a093-de90f890358e -1.843     5.599      0          0          0         
3a635d01-3932-47d3-8af6-11052c374573 -1.635     5.599      0          0          0         
a7ecec38-2a6d-4339-8db4-5fa1fb7dc50f -1.854     5.599      0          0          0         
50b3c20c-9208-406d-bea1-66132a4b7e82 -2.083     5.599      0          0          0         
1c8729c0-be07-448e-8522-c5a76327405e -1.387     5.599      0          0          0         
a7d2bd79-5109-449d-b39c-1ddad53fbc7e -1.95      5.599      0          0          0         
3b319c99-dd67-49e6-b88c-1363c554fb56 -2.06      5.599      0          0          0         
d9404d64-b9e0-468e-8361-182beba9851a -1.321     5.599      0          0          0         
4173ef7f-8db6-426d-8e8d-50fa0b8388ca -1.449     5.599      0          0          0         
97d16b72-69a6-4380-93a1-9bc10788108c -1.936     5.599      0          0          0         
baf6f05a-1a85-4043-b563-ce98b3a46070 -1.664     5.599      0          0          0         
2479656a-01a5-4676-971e-907125db93f6 -1.632     5.599      0          0          0         
9dd7afe6-c9f9-440b-a1ac-0919ede9d8bb -1.893     5.599      0          0          0         
a969aec1-424d-44b6-901a-723a856324e4 -1.769     5.599      0          0          0         
5ee3c3ef-c67a-4594-b4e6-e52ada33cf09 -1.478     5.599      0          0          0         
2C12462299779367 -1.445     5.186      0          0          0         
1A2AF1AEE09242BC -1.033     5.257      0          0          0         
910603DD68C6B958 -0.775     4.721      0          0          0         
A6A54B1347B860BC -1.583     4.938      0          0          0         
57CB1327B63622B3 -0.466     4.631      0          0          0         
4A94B2771D154BAE -0.687     4.755      0          0          0         
61EE5BFA126DEEA9 0.192      4.726      0          0          0         
A251D45CBA05D4C9 -0.294     5.264      0          0          0         
D6AD07F14EA89197 -1.197     4.939      0          0          0         
E4A8FA6D61BB0E84 -1.364     5.49       0          0          0         
BFAC7AB4225A179D -0.801     5.326      0          0          0         
5FC52517C71E00FC -1.888     5.436      0          0          0         
845D8DE3384D44D6 -1.061     4.7        0          0          0         
ADF6158BE07F7B05 -1.177     5.065      0          0          0         
46237B78F76D5540 -0.485     4.678      0          0          0         
E70E9D671B89EB97 -1.118     5.033      0          0          0         
1D6A4AFBB5B6E91A -1.135     4.864      0          0          0         
174D2EB4430890E1 -0.693     4.604      0          0          0         
7F5C944E801C1D19 -1.139     5.053      0          0          0         
B56007BFC11186CC -1.794     5.33       0          0          0         
9D621C82174E2A90 0.064      4.843      0          0          0         
D947349CE6F91705 -0.822     4.872      0          0          0         
DCBA9F3E74C7B83F -0.021     4.771      0          0          0         
B522D05BFA2EF756 -2.003     5.508      0          0          0         
491B504E72CAA255 -0.899     4.794      0          0          0         
F366F11183E38E86 -0.869     5          0          0          0         
BA3578C01E49387F -0.315     4.958      0          0          0         
A668EC98A286874C -1.151     4.701      0          0          0         
91D743BE1B700D05 -0.658     4.963      0          0          0         
13982B78D5202890 -0.859     4.965      0          0          0         
441400EB0BFB3D4A -1.29      5.114      0          0          0         
34A78B85E99E09E5 -1.538     5.217      0          0          0         
4BBBAB6A36A17841 -0.743     4.662      0          0          0         
D62627EF8BAFB197 -1.218     5.186      0          0          0         
FB5BF0A7DB3080FC -1.061     5.089      0          0          0         
EBFFAF22EF0CD405 -1.851     5.492      0          0          0         
5C4C01C57F83A897 -1.793     5.322      0          0          0         
27764E85AB5BBFE1 -1.123     4.912      0          0          0         
1934C81D48E24FE1 -1.443     5.131      0          0          0         
F5E4124EEA3FBF16 -1.468     5.542      0          0          0         
474F1693C6E950B9 -1.296     5.338      0          0          0         
12DCE119A3D12E1F -1.543     5.116      0          0          0         
BF2766FED500D4EC -1.381     5.288      0          0          0         
D06AD80B8411F890 -0.729     4.82       0          0          0         
94A8A3F78CC93CB9 -1.149     5.069      0          0          0         
B856E747774E4A05 -1.826     5.381      0          0          0         
1F7193CED39FBB2C -1.312     5.307      0          0          0         
885C3CB3C6CBE259 -1.064     4.602      0          0          0         
A1F156099F7A183F -0.264     4.663      0          0          0         
3377D2B386742873 -0.94      4.947      0          0          0         
20DDFE61BE2439A2 -1.366     5.04       0          0          0         
7FE4A3EF6C2B65A4 -0.65      4.615      0          0          0         
3F82F17833EA44FF -1.213     4.926      0          0          0         
1BD1CBF36C4F2DE5 -1.748     5.506      0          0          0         
4DEE779D52FE12D5 -1.182     4.957      0          0          0         
6562491769799EB8 -0.877     4.704      0          0          0         
B95E9A76C92D0C7C -1.142     5.012      0          0          0         
1D3A7A53B3AEBF5B -1.565     5.28       0          0          0         
3D76D77B3AD6EB00 -1.313     4.858      0          0          0         
87C65FAD2307A7A2 -0.209     4.675      0          0          0         
A04309023D270BAE -1.806     5.359      0          0          0         
6BFC00BE563C48E6 -0.712     5.18       0          0          0         
FDE7CC3593C0DFE6 -1.699     5.228      0          0          0         
6B8687E6CD463740 -0.895     4.988      0          0          0         
92DD8A2E22C7E189 -0.811     5.256      0          0          0         
CBAA77AA533D38F3 -0.458     4.938      0          0          0         
8DACCF25C0B091D4 -1.417     5.051      0          0          0         
5b9005b4-b1e1-4040-819a-2f111055421f -1.668     5.599      0          0          0         
56640025-8a09-4c6c-a93d-2a22770d1c9c -1.366     5.599      0          0          0         
70651c08-d27c-4dcb-a288-84b02b404ade -1.888     5.599      0          0          0         
c39c9d5e-17ab-479b-952b-7519630bbe8a -1.321     5.599      0          0          0         
782ce3e4-d140-403f-916e-20812c03e8f3 -1.694     5.599      0          0          0         
d500b737-0e8c-4e0c-a5dd-0f3aabb3cce1 -1.752     5.599      0          0          0         
eb7c9837-ae7c-4332-945b-b8027596452d -2.032     5.599      0          0          0         
320bd0a7-47a2-4368-b65d-0c4260d2a73a -1.612     5.599      0          0          0         
145CD28207C17C19 -1.662     5.548      0          0          0         
17C49C1E126E874C -1.31      5.118      0          0          0         
3D0A5FF5C3A46528 -1.042     5.446      0          0          0         
FD2F81D5A404D9F3 -0.78      4.806      0          0          0         
8CEAF40E5C17B38C 0.048      4.644      0          0          0         
668FACC31072CA1D -1.44      5.391      0          0          0         
3105A83FCD5B0CA6 -0.61      4.711      0          0          0         
374B8BC6046E17D2 -0.686     4.795      0          0          0         
45F4DD87309B4C83 -0.812     4.66       0          0          0         
8063755059B3D4E2 0.213      5.474      0          0          0         
5E4CA33BCB74507C -0.575     4.829      0          0          0         
18086317FF2F2B5E -1.013     5.018      0          0          0         
EE3CEEF7B3124FE1 -0.44      4.665      0          0          0         
E6947943F99FE61F 0.465      5.149      0          0          0         
D0286640967066E4 -1.466     5.24       0          0          0         
F7FBF9DB2360D4EC -0.4       5.014      0          0          0         
1E23F0B9CAA5D611 0.113      5.189      0          0          0         
90CDC1EE35D1CA96 -2.666     4.766      0          0          0         
1478A6B62D7DD48F 1.953      5.548      0          0          0         
85177360EF829D9F -0.12      5.236      0          0          0         
A5F2A3BC7758BEE2 -0.918     4.874      0          0          0         
CEFE5D3838770CF8 -1.638     4.938      0          0          0         
ACFD37EF27542DA7 -1.86      5.431      0          0          0         
A2544951B6A73984 0.418      5.235      0          0          0         
96771A3A977F0D17 -0.718     4.863      0          0          0         
D7DF4E24A295323F -1.492     5.294      0          0          0         
2CEE780E838B2EFC -0.442     4.889      0          0          0         
4EBFAF592B67394D -0.585     4.828      0          0          0         
CB800E2902B2A890 -1.307     5.397      0          0          0         
9F0A9C25729BA1E1 -1.496     5.272      0          0          0         
4AAA349323C1D455 -0.446     4.797      0          0          0         
3DC764CAD6667CA0 -1.126     5.131      0          0          0         
703364613F625457 -0.697     4.8        0          0          0         
8B79AEE0D5A7EBE1 -2.647     5.226      0          0          0         
9ABD84DCECB9416F -1.284     4.674      0          0          0         
66048C05A8C5CA5A -1.993     5.067      0          0          0         
33423B42C1865B16 -2.972     5.541      0          0          0         
A2FF4CA7FCBE927A 0.747      4.69       0          0          0         
40F2935C6C45A8A7 -1.159     4.828      0          0          0         
B29522E15D6CD4EC -2.023     5.373      0          0          0         
D5A944B2B29D4557 -1.462     5.312      0          0          0         
6986760004FEDBD6 -0.999     4.866      0          0          0         
A81B6447B8E5FE26 0.036      4.645      0          0          0         
36BD0C466A131D9F -1.27      4.964      0          0          0         
33F9A77DE495348F 0.41       5.553      0          0          0         
8ED9B40AB1A86594 -1.118     5.01       0          0          0         
94C06DA829617030 -0.797     5.235      0          0          0         
25C0BC47ADE714C7 -1.821     4.947      0          0          0         
A2410636E54EEBE1 -1.668     5.372      0          0          0         
1A02882744A72408 -1.618     5.377      0          0          0         
8203F2B7109D519F -2.064     5.085      0          0          0         
942737766D0D246E -0.996     4.81       0          0          0         
9C33160EA7AAB2AE -0.498     4.602      0          0          0         
A2EFCBCF6D04A916 -1.127     5.231      0          0          0         
6845BD632F738681 -1.177     4.971      0          0          0         
406AC942301A8D67 -0.557     4.785      0          0          0         
9BFC27ECFA711584 -0.845     4.693      0          0          0         
47C87233547BF99F -1.272     4.635      0          0          0         
9D1ED1CD2FA465E1 -1.208     4.655      0          0          0         
5D762CBC26FD54A7 -1.583     5.522      0          0          0         
1BA089CC0C3321DD -1.038     5.483      0          0          0         
D130CFED67430137 -1.683     5.561      0          0          0         
4A49F122725765A4 -1.651     4.938      0          0          0         
9CE77CC1C99DD07C -1.74      5.585      0          0          0         
4B5EEAF01F6517E2 -0.43      4.682      0          0          0         
8A83956769F4D4EC -0.64      5.271      0          0          0         
B807A08F5522BE18 -0.732     5.36       0          0          0         
7747F88CA5377055 -0.788     4.935      0          0          0         
10374AC650368659 -1.549     4.779      0          0          0         
8FAE84C7F313CFF7 -1.326     4.989      0          0          0         
FA618C81EF3BEDB8 -0.44      4.728      0          0          0         
B21145AD6D2CD457 -0.493     5.486      0          0          0         
7671A35269CF9158 -0.689     5.539      0          0          0         
4ECB9896F924E5A8 -0.666     4.951      0          0          0         
87BE5B8CFD14662D -0.283     5.239      0          0          0         
A9C669617658942E -0.286     4.861      0          0          0         
851D43936AC47DE6 -1.239     5.454      0          0          0         
7342BE171D141CA0 -0.801     5.131      0          0          0         
561749E6FD3EEE84 -0.172     5.322      0          0          0         
C13B3887771CA8BF -0.045     4.93       0          0          0         
47D41DC88C2B43C0 -1.048     5.032      0          0          0         
1935A7CCCD8FDF44 -0.388     4.615      0          0          0         
3EC3A69B66FAE1EF -0.571     5.529      0          0          0         
E238B1165DF0D4AE -0.796     5.148      0          0          0         
28EDF5FC5873C832 -0.544     5.178      0          0          0         
229E30672B3991D4 -1.531     5.191      0          0          0         
F400A286ABE42CDC 0.653      5.156      0          0          0         
47204609B3D16942 -0.102     5.267      0          0          0         
B93C0CAD33AE5AF5 -1.261     4.754      0          0          0         
98524B570398D558 -0.891     4.668      0          0          0         
2B8A2D66DFFA5A8B 0.824      5.467      0          0          0         
1AEFC849CAE0027B -1.192     4.658      0          0          0         
E42C9F04640DA1AF -0.766     4.994      0          0          0         
4C9018F77E134F26 -1.407     5.588      0          0          0         
644F1FF359403BFD -1.833     5.471      0          0          0         
AFEA1478AB593921 0.445      4.608      0          0          0         
E2E36EC4EAC24E40 2.732      4.677      0          0          0         
D6D42306CA22A408 -0.741     5.09       0          0          0         
3EFECEA9B0FCFEA4 -2.08      5.076      0          0          0         
CD8217160B2A94A7 -1.587     5.412      0          0          0         
C3DDB92889579C09 1.265      4.641      0          0          0         
5D12EB997384BF13 -1.089     5.163      0          0          0         
226520DC694F81DD 1.033      4.741      0          0          0         
6763B6B9B87DF1DD -0.786     5.519      0          0          0         
82514541936D2D19 -0.91      5.588      0          0          0         
3B37E96F80C37075 -1.295     4.996      0          0          0         
F8DDC863891EF534 0.552      4.981      0          0          0         
25C99C67D333BBE1 -1.611     5.026      0          0          0         
73DE9D99CB00F641 -1.353     5.584      0          0          0         
8969AAE5B694E03D -0.612     4.67       0          0          0         
643D974F019FB3CE -0.352     4.716      0          0          0         
A1275D52700354EC 0.15       4.651      0          0          0         
DCF96A4C02115948 2.736      5.543      0          0          0         
E9DF2580AD9D4055 -2.144     5.307      0          0          0         
5023F19264364E40 -1.546     5.448      0          0          0         
6814B92ED8D5EA97 0.195      4.77       0          0          0         
C946D9991F39203C 1.217      5.417      0          0          0         
45BCAAE431C72D2E -1.088     4.883      0          0          0         
E551D2CDA2590B84 -0.981     4.757      0          0          0         
8C7965DCF5229A56 -1.604     5.233      0          0          0         
58E06E50145522A9 -1.165     4.686      0          0          0         
4DEE6AAD08E42CDC -0.691     5.089      0          0          0         
A5F15191FE57E7AC -1.133     4.629      0          0          0         
3E39C0550796EB5E -0.196     4.976      0          0          0         
9948783C679616B2 -1.97      5.573      0          0          0         
7450CD5BFCBB44DE -0.388     4.602      0          0          0         
3E727B4CF954F079 -1.983     4.932      0          0          0         
3D80A0F7B9F6487A -1.413     4.973      0          0          0         
58A517B11D713809 -1.947     5.437      0          0          0         
D582A6698217A8BF -2.743     5.545      0          0          0         
3BD0CA3C007A183F -1.057     4.63       0          0          0         
F63C11A2CC99F68F -1.439     4.89       0          0          0         
709EA43D4E97E13C -1.167     4.773      0          0          0         
EAB5C4573C92054C -1.152     5.057      0          0          0         
4D38C7E5A68D2E11 -0.925     5.466      0          0          0         
B31910F3A7BBAA56 -2.185     5.323      0          0          0         
6B767A918038FE6E -1.812     5.123      0          0          0         
AD5DE3349A8364BB -1.435     4.993      0          0          0         
1400643E895544FF -2.209     5.582      0          0          0         
41722A0FD69CB281 -2.187     5.599      0          0          0         
D1BEB9ACC34532AF -1.56      5.108      0          0          0         
C6C65F690EC05100 -1.452     5.168      0          0          0         
E0675DFA8604507C -0.953     4.618      0          0          0         
D7A4995E64E24F5F -1.688     5.185      0          0          0         
B4D12181D0ED5F28 -1.897     5.512      0          0          0         
AE0BE6E24377A8C8 -1.982     5.522      0          0          0         
E7D040CF805815E1 -0.417     5.488      0          0          0         
3CFFB10997F7708A -1.897     5.362      0          0          0         
BC0F6C77EB0BEA56 -1.501     4.942      0          0          0         
6C712F75B4EB2EFC -0.868     4.685      0          0          0         
7A36DBE572571876 -1.82      5.257      0          0          0         
B25D8DC133B37ECF -0.588     5.033      0          0          0         
36DBEEA7B19AB33F -1.762     5.138      0          0          0         
27E1A5E91F2F15F5 -1.263     5.131      0          0          0         
27AAD05A3A98CCC9 -1.737     5.284      0          0          0         
938FE30BC223863C 1.033      5.442      0          0          0         
45EAECF48D31A8BF -2.102     5.533      0          0          0         
14A545B11F6B7AE2 -0.426     4.826      0          0          0         
BEBC470E0D4EA85F -1.148     5.016      0          0          0         
588089CA5BFB78AB -0.81      4.636      0          0          0         
896A994948BC9D9B -1.325     5.068      0          0          0         
6CC5876AEFD10C2D -1.183     4.866      0          0          0         
5BD79AC6D735A8BF -1.263     4.767      0          0          0         
7EB34CEFFA00D486 -1.195     4.872      0          0          0         
6F1A0E229A2C137A -0.842     4.719      0          0          0         
12F80CE0751B449E -1.359     5.117      0          0          0         
72A65272B626E389 -1.304     5.359      0          0          0         
25ED428690A98505 -1.164     5.008      0          0          0         
D19CC87D088144AD -0.898     5.361      0          0          0         
D1A069E8E929D0EA -0.903     5.243      0          0          0         
119ACC1AF8D22681 -1.254     5.093      0          0          0         
3FD774272B5ABEA9 -1.691     5.301      0          0          0         
F6DF2349BC2E874C -1.191     5.499      0          0          0         
992D4362B1050B4C -1.422     5.232      0          0          0         
A24C0FF6879DF1DD -0.717     4.618      0          0          0         
A392A8C1B5FCD5BF -0.541     4.766      0          0          0         
F31B09FCA2A10253 -1.033     5.049      0          0          0         
CF6A59B2BE360474 -1.297     5.38       0          0          0         
7102DCB2CB81C395 -1.166     4.947      0          0          0         
82670F4D4F5EF003 -1.117     4.985      0          0          0         
24212DC0973914EC -0.661     4.669      0          0          0         
905DB741A80B225F -0.752     4.751      0          0          0         
CC5B53C2B3235AAF -0.901     4.933      0          0          0         
786B8804EE5A891A -0.538     4.653      0          0          0         
4D0E22A33B390187 -1.164     4.848      0          0          0         
29949504E65A4529 -0.617     4.665      0          0          0         
278243E2408CC957 -0.984     4.89       0          0          0         
521E32CB83F19EAF -1.454     5.55       0          0          0         
5AD2C872A4BE5AE2 -0.772     4.848      0          0          0         
10E175FA4D03863C -0.575     4.808      0          0          0         
762A74A49B13D42E -1.219     4.962      0          0          0         
7A7C617AD35A89FC -0.767     5.026      0          0          0         
5E1C7C10450670C7 -0.873     5.324      0          0          0         
2565A36416EBEA92 -1.32      5.165      0          0          0         
38B2C87FFD3EA75F -0.964     5.148      0          0          0         
165565211F669D68 -1.935     5.47       0          0          0         
7DF36958F72FC514 -1.553     5.536      0          0          0         
B6A41C84EA81E927 -0.67      5.135      0          0          0         
21B1605F3E84F918 -1.455     5.029      0          0          0         
C3C4FE80CE03E786 -0.656     4.964      0          0          0         
F6F23A42720B9158 -1.002     4.817      0          0          0         
B891FFE7392EF649 -1.274     5.186      0          0          0         
4114C9C24B76BEFB -0.888     4.839      0          0          0         
5C3975A01E7F21DD -0.939     5.091      0          0          0         
B3BC686880C51D08 -0.841     5.149      0          0          0         
691081D6635D6118 -1.572     5.291      0          0          0         
8E8C25E9921CF5A7 -0.771     4.936      0          0          0         
8856AAE6F24E0095 -1.348     5.204      0          0          0         
AC0F9FFC6D623205 -1.657     5.513      0          0          0         
84685CC54E39EA56 -1.812     5.516      0          0          0         
9DF3FB527C037241 -1.081     4.72       0          0          0         
138A629FEAD0908F -1.378     5.218      0          0          0         
B90D5E2A3388A42D -1.553     5.337      0          0          0         
7E276022C035D4C9 -1.624     5.431      0          0          0         
85896924C0506030 -1.182     5.477      0          0          0         
9916830A86557767 -1.884     5.457      0          0          0         
3F4D016B5FD33D17 -1.219     5.172      0          0          0         
99E3F7F25D7F68F9 -1.288     4.818      0          0          0         
667F31391CE6F300 -1.314     4.95       0          0          0         
F8412D4AE7C7BFB9 -0.905     5.005      0          0          0         
29D84F4B4E97F60E -1.644     5.402      0          0          0         
D0C5FAFB891F73D0 -1.359     5.141      0          0          0         
F60246BD841BECF6 -0.93      4.846      0          0          0         
BCD942F77C7FADF7 -1.898     5.43       0          0          0         
94E4AB1439D9FD38 -1.898     5.551      0          0          0         
93170042A3C170B6 -1.569     5.267      0          0          0         
C0F6F20ABB8692A4 -0.61      4.812      0          0          0         
8F2AE101C0A86631 -1.653     5.574      0          0          0         
334364CB93860F75 -0.913     4.749      0          0          0         
4B3698379B8A8878 -1.675     5.218      0          0          0         
19221C41B416A8D6 -1.224     5.479      0          0          0         
FA88C6E3A6FE3809 -1.167     5.136      0          0          0         
407BB61BC721897E -0.425     4.753      0          0          0         
51B800D9D849016F -0.96      4.923      0          0          0         
5B2ADB6F8186CF26 -1.021     5.059      0          0          0         
288243F25DF391FC -1.719     5.277      0          0          0         
919CAF935D8C963D -0.944     5.13       0          0          0         
860F05EE75D751D0 -1.513     5.597      0          0          0         
925C60A173019218 -1.322     5.073      0          0          0         
294F755B5B0D3832 -1.602     5.265      0          0          0         
9179B12C3AE64E40 -0.951     5.096      0          0          0         
157CA88E5BC98E40 -0.948     4.76       0          0          0         
3C567727F38692A4 -1.51      5.108      0          0          0         
49A8DD8071246D58 -1.044     4.938      0          0          0         
93907F143C4A2700 -1.216     5.539      0          0          0         
7B7334FD566C854C -0.886     5.22       0          0          0         
ECA332042EF47AB3 -1.147     5.483      0          0          0         
9ECD6D382A055AF7 -1.042     4.76       0          0          0         
F5E57682F79C92A4 -0.846     5.328      0          0          0         
C092B0AB6CE568A7 -1.162     5.533      0          0          0         
830B044866BCA8A7 -0.963     4.986      0          0          0         
91F49982C12E7AE3 -1.031     5.144      0          0          0         
ED7E60B9A62462A4 -0.673     4.679      0          0          0         
1B7688F722F0B47F -1.917     5.43       0          0          0         
A788C9ACA436F055 -1.073     5.106      0          0          0         
488ED60DABCFAB97 -0.948     5.165      0          0          0         